Version 4
SHEET 1 2272 680
WIRE -64 -1264 -144 -1264
WIRE 64 -1264 -64 -1264
WIRE 352 -1264 64 -1264
WIRE 944 -1264 352 -1264
WIRE 1088 -1264 944 -1264
WIRE 1200 -1264 1088 -1264
WIRE 1312 -1264 1200 -1264
WIRE 1424 -1264 1312 -1264
WIRE -144 -1248 -144 -1264
WIRE -64 -1248 -64 -1264
WIRE 944 -1184 944 -1264
WIRE -352 -1168 -432 -1168
WIRE -144 -1168 -144 -1184
WIRE -144 -1168 -272 -1168
WIRE 64 -1168 64 -1264
WIRE 880 -1136 816 -1136
WIRE 1088 -1136 1088 -1264
WIRE 1200 -1136 1200 -1264
WIRE 1312 -1136 1312 -1264
WIRE 1424 -1136 1424 -1264
WIRE -64 -1120 -64 -1184
WIRE -64 -1120 -224 -1120
WIRE -224 -1088 -224 -1120
WIRE -224 -1088 -432 -1088
WIRE -144 -1088 -144 -1168
WIRE -64 -1088 -64 -1120
WIRE 1024 -1088 944 -1088
WIRE 1136 -1088 1024 -1088
WIRE 1248 -1088 1136 -1088
WIRE 1360 -1088 1248 -1088
WIRE 1376 -1088 1360 -1088
WIRE -432 -1056 -432 -1088
WIRE -144 -1008 -144 -1024
WIRE -64 -1008 -64 -1024
WIRE -64 -1008 -144 -1008
WIRE 64 -1008 64 -1104
WIRE 64 -1008 -64 -1008
WIRE 352 -1008 352 -1264
WIRE 480 -1008 352 -1008
WIRE 1088 -960 1088 -1040
WIRE 1200 -960 1200 -1040
WIRE 1312 -960 1312 -1040
WIRE -432 -944 -432 -976
WIRE -64 -944 -64 -1008
WIRE 1424 -944 1424 -1040
WIRE 352 -912 352 -1008
WIRE 480 -912 480 -1008
WIRE 816 -880 816 -1136
WIRE 816 -880 560 -880
WIRE 1088 -816 1088 -880
WIRE 1088 -816 560 -816
WIRE 1200 -816 1200 -880
WIRE 1200 -816 1088 -816
WIRE 1312 -816 1312 -880
WIRE 1312 -816 1200 -816
WIRE 1424 -816 1424 -864
WIRE 1424 -816 1312 -816
WIRE 272 -752 176 -752
WIRE 1088 -752 1088 -816
WIRE 1200 -752 1200 -816
WIRE 1312 -752 1312 -816
WIRE 1424 -752 1424 -816
WIRE 832 -720 560 -720
WIRE 912 -720 832 -720
WIRE 832 -656 832 -720
WIRE 176 -624 176 -752
WIRE 272 -624 176 -624
WIRE 640 -624 560 -624
WIRE 736 -624 640 -624
WIRE 912 -624 912 -720
WIRE 1088 -624 1088 -672
WIRE 1088 -624 912 -624
WIRE 1200 -624 1200 -672
WIRE 1200 -624 1088 -624
WIRE 1312 -624 1312 -672
WIRE 1312 -624 1200 -624
WIRE 1424 -624 1424 -672
WIRE 1424 -624 1312 -624
WIRE 1488 -624 1424 -624
WIRE 640 -592 640 -624
WIRE 1488 -592 1488 -624
WIRE 1632 -592 1488 -592
WIRE 1712 -592 1632 -592
WIRE 1792 -592 1712 -592
WIRE 1872 -592 1792 -592
WIRE 2000 -592 2000 -656
WIRE 2000 -592 1936 -592
WIRE 2080 -592 2000 -592
WIRE 2080 -528 2080 -592
WIRE 832 -512 832 -576
WIRE 1632 -512 1632 -592
WIRE 1712 -512 1712 -592
WIRE 1792 -512 1792 -592
WIRE 640 -496 640 -528
WIRE 640 -496 560 -496
WIRE 736 -464 736 -624
WIRE 784 -464 736 -464
WIRE 832 -400 832 -432
WIRE 1632 -400 1632 -448
WIRE 1712 -400 1712 -448
WIRE 1712 -400 1632 -400
WIRE 1792 -400 1792 -448
WIRE 1792 -400 1712 -400
WIRE 2080 -400 2080 -448
WIRE 2080 -400 1792 -400
WIRE 416 -288 416 -464
WIRE 832 -288 832 -320
WIRE 832 -288 416 -288
WIRE 1632 -272 1632 -400
WIRE 416 -208 416 -288
FLAG -64 -944 0
FLAG -432 -944 0
FLAG 416 -208 0
FLAG 2000 -656 DC-Out
FLAG 1632 -272 0
SYMBOL diode -128 -1184 R180
WINDOW 0 27 63 Left 2
WINDOW 3 24 0 Invisible 2
SYMATTR InstName D1
SYMATTR Value MinDiod
SYMBOL diode -128 -1024 R180
WINDOW 0 24 72 Left 2
WINDOW 3 24 0 Invisible 2
SYMATTR InstName D2
SYMATTR Value MinDiod
SYMBOL diode -48 -1184 R180
WINDOW 0 28 64 Left 2
WINDOW 3 24 0 Invisible 2
SYMATTR InstName D3
SYMATTR Value MinDiod
SYMBOL diode -48 -1024 R180
WINDOW 0 24 72 Left 2
WINDOW 3 24 0 Invisible 2
SYMATTR InstName D4
SYMATTR Value MinDiod
SYMBOL voltage -432 -1184 M0
WINDOW 123 0 0 Left 2
WINDOW 39 0 0 Left 2
SYMATTR InstName V1
SYMATTR Value SINE(0 27.3 50)
SYMBOL polcap 80 -1168 M0
WINDOW 3 24 56 Left 2
SYMATTR Value 47E-3
SYMATTR InstName C1
SYMATTR Description Capacitor
SYMATTR Type cap
SYMATTR SpiceLine V=63 Irms=20 Rser=0.1 Lser=0
SYMBOL res -368 -1152 R270
WINDOW 0 32 56 VTop 2
WINDOW 3 0 56 VBottom 2
SYMATTR InstName R3
SYMATTR Value 0.2
SYMBOL res -448 -1072 R0
SYMATTR InstName R2
SYMATTR Value 1E9
SYMBOL npn 1248 -1136 R0
WINDOW 0 84 4 VRight 2
WINDOW 3 84 54 VRight 2
SYMATTR InstName Q1
SYMATTR Value 2N3055
SYMBOL npn 1136 -1136 R0
WINDOW 0 82 4 VRight 2
WINDOW 3 84 56 VRight 2
SYMATTR InstName Q2
SYMATTR Value 2N3055
SYMBOL npn 1024 -1136 R0
WINDOW 0 82 3 VRight 2
WINDOW 3 84 55 VRight 2
SYMATTR InstName Q3
SYMATTR Value 2N3055
SYMBOL npn 880 -1184 R0
WINDOW 0 84 5 VRight 2
WINDOW 3 85 51 VRight 2
SYMATTR InstName Q4
SYMATTR Value BD131
SYMBOL res 1072 -976 R0
SYMATTR InstName R4
SYMATTR Value 0.1
SYMATTR SpiceLine pwr=5
SYMBOL res 1184 -976 R0
SYMATTR InstName R5
SYMATTR Value 0.1
SYMATTR SpiceLine pwr=5
SYMBOL res 1296 -976 R0
SYMATTR InstName R6
SYMATTR Value 0.1
SYMATTR SpiceLine pwr=5
SYMBOL LM723 416 -784 R0
SYMATTR InstName U1
SYMBOL cap 624 -592 R0
SYMATTR InstName C2
SYMATTR Value 100p
SYMBOL res 848 -560 R180
WINDOW 0 36 76 Left 2
WINDOW 3 36 40 Left 2
SYMATTR InstName R7
SYMATTR Value 3.9k
SYMBOL res 816 -416 R0
SYMATTR InstName R8
SYMATTR Value 4.7k
SYMBOL npn 1360 -1136 R0
WINDOW 0 84 4 VRight 2
WINDOW 3 84 54 VRight 2
SYMATTR InstName Q5
SYMATTR Value 2N3055
SYMBOL res 1408 -960 R0
SYMATTR InstName R9
SYMATTR Value 0.1
SYMATTR SpiceLine pwr=5
SYMBOL res 1072 -768 R0
SYMATTR InstName R10
SYMATTR Value 0.1
SYMATTR SpiceLine pwr=5
SYMBOL res 1184 -768 R0
SYMATTR InstName R11
SYMATTR Value 0.1
SYMATTR SpiceLine pwr=5
SYMBOL res 1296 -768 R0
SYMATTR InstName R12
SYMATTR Value 0.1
SYMATTR SpiceLine pwr=5
SYMBOL res 1408 -768 R0
SYMATTR InstName R13
SYMATTR Value 0.1
SYMATTR SpiceLine pwr=5
SYMBOL potentiometer 848 -528 M0
SYMATTR InstName U2
SYMATTR Value Rtot=10k wiper=0.1
SYMBOL diode 1776 -448 M180
WINDOW 0 24 64 Left 2
WINDOW 3 24 0 Left 2
SYMATTR InstName D5
SYMATTR Value 1N4148
SYMBOL cap 1728 -512 M0
SYMATTR InstName C3
SYMATTR Value 47E-6
SYMBOL cap 1648 -512 M0
SYMATTR InstName C4
SYMATTR Value 47E-6
SYMBOL res 2064 -544 R0
SYMATTR InstName Rload
SYMATTR Value 4
SYMBOL diode 1872 -576 R270
WINDOW 0 32 32 VTop 2
WINDOW 3 0 32 Invisible 2
SYMATTR InstName D7
SYMATTR Value MinDiod
TEXT -384 -712 Left 2 !.tran 0.200s
TEXT -608 -1672 Left 4 ;Likriktarkrets med egen diodmodell.\nKretsen matas via en transformator som här modelleras med en spänningskälla\nmed spänningen lika med transformatorns tomgångsspänning på 19.3 V (RMS).\nR3 motsvarar spänningsfallet i transformatorn.
TEXT -448 -1128 Left 1 ;19.3V
TEXT -264 -1328 Left 2 !.model MinDiod D(Ron=0.1 Roff=1Meg Vfwd=0.5)
TEXT 1512 -896 Left 2 ;5 W
TEXT -384 -592 Left 2 !.inc potentiometer.sub
TEXT -384 -656 Left 2 !.lib Models.lib
