Version 4
SHEET 1 2224 1972
WIRE -816 416 -1152 416
WIRE -720 416 -816 416
WIRE -544 416 -720 416
WIRE 48 416 -544 416
WIRE 192 416 48 416
WIRE 304 416 192 416
WIRE 416 416 304 416
WIRE 528 416 416 416
WIRE 48 496 48 416
WIRE -816 512 -816 416
WIRE -720 512 -720 416
WIRE -1152 528 -1152 416
WIRE -16 544 -80 544
WIRE 192 544 192 416
WIRE 304 544 304 416
WIRE 416 544 416 416
WIRE 528 544 528 416
WIRE 128 592 48 592
WIRE 240 592 128 592
WIRE 352 592 240 592
WIRE 464 592 352 592
WIRE 480 592 464 592
WIRE -816 640 -816 576
WIRE -720 640 -720 576
WIRE -544 672 -544 416
WIRE -416 672 -544 672
WIRE -1152 688 -1152 608
WIRE 192 720 192 640
WIRE 304 720 304 640
WIRE 416 720 416 640
WIRE 528 736 528 640
WIRE -544 768 -544 672
WIRE -416 768 -416 672
WIRE -80 800 -80 544
WIRE -80 800 -336 800
WIRE 192 864 192 800
WIRE 192 864 -336 864
WIRE 304 864 304 800
WIRE 304 864 192 864
WIRE 416 864 416 800
WIRE 416 864 304 864
WIRE 528 864 528 816
WIRE 528 864 416 864
WIRE -624 928 -720 928
WIRE 192 928 192 864
WIRE 304 928 304 864
WIRE 416 928 416 864
WIRE 528 928 528 864
WIRE -64 960 -336 960
WIRE 16 960 -64 960
WIRE -64 1024 -64 960
WIRE -720 1056 -720 928
WIRE -624 1056 -720 1056
WIRE -256 1056 -336 1056
WIRE -160 1056 -256 1056
WIRE 16 1056 16 960
WIRE 192 1056 192 1008
WIRE 192 1056 16 1056
WIRE 304 1056 304 1008
WIRE 304 1056 192 1056
WIRE 416 1056 416 1008
WIRE 416 1056 304 1056
WIRE 528 1056 528 1008
WIRE 528 1056 416 1056
WIRE 592 1056 528 1056
WIRE -256 1088 -256 1056
WIRE 592 1088 592 1056
WIRE 736 1088 592 1088
WIRE 816 1088 736 1088
WIRE 896 1088 816 1088
WIRE 976 1088 896 1088
WIRE 1104 1088 1104 1024
WIRE 1104 1088 1040 1088
WIRE 1184 1088 1104 1088
WIRE 1328 1088 1264 1088
WIRE -64 1168 -64 1104
WIRE 736 1168 736 1088
WIRE 816 1168 816 1088
WIRE 896 1168 896 1088
WIRE 1328 1168 1328 1088
WIRE -256 1184 -256 1152
WIRE -256 1184 -336 1184
WIRE -160 1216 -160 1056
WIRE -112 1216 -160 1216
WIRE -64 1280 -64 1248
WIRE 736 1280 736 1232
WIRE 816 1280 816 1232
WIRE 816 1280 736 1280
WIRE 896 1280 896 1232
WIRE 896 1280 816 1280
WIRE 1328 1280 1328 1232
WIRE 1328 1280 896 1280
WIRE -480 1392 -480 1216
WIRE -64 1392 -64 1360
WIRE -64 1392 -480 1392
WIRE 736 1408 736 1280
WIRE -480 1472 -480 1392
FLAG -480 1472 0
FLAG 1104 1024 DC-Out
FLAG -816 640 0
FLAG -720 640 0
FLAG -1152 688 0
FLAG 736 1408 0
SYMBOL npn 352 544 R0
WINDOW 0 84 4 VRight 2
WINDOW 3 84 54 VRight 2
SYMATTR InstName Q4
SYMATTR Value 2N3055
SYMBOL npn 240 544 R0
WINDOW 0 82 4 VRight 2
WINDOW 3 84 56 VRight 2
SYMATTR InstName Q3
SYMATTR Value 2N3055
SYMBOL npn 128 544 R0
WINDOW 0 82 3 VRight 2
WINDOW 3 84 55 VRight 2
SYMATTR InstName Q2
SYMATTR Value 2N3055
SYMBOL npn -16 496 R0
WINDOW 0 84 5 VRight 2
WINDOW 3 85 51 VRight 2
SYMATTR InstName Q1
SYMATTR Value BD131
SYMBOL res 176 704 R0
SYMATTR InstName R4
SYMATTR Value 0.1
SYMATTR SpiceLine pwr=5
SYMBOL res 288 704 R0
SYMATTR InstName R5
SYMATTR Value 0.1
SYMATTR SpiceLine pwr=5
SYMBOL res 400 704 R0
SYMATTR InstName R6
SYMATTR Value 0.1
SYMATTR SpiceLine pwr=5
SYMBOL LM723 -480 896 R0
SYMATTR InstName U1
SYMBOL cap -272 1088 R0
SYMATTR InstName C4
SYMATTR Value 100p
SYMBOL Misc\\EuropeanPolcap 720 1168 R0
SYMATTR InstName C5
SYMATTR Value 10µ
SYMATTR SpiceLine V=25V Rser=0.6
SYMBOL Misc\\EuropeanPolcap -832 512 R0
WINDOW 0 28 1 Left 2
WINDOW 3 23 79 Left 2
SYMATTR InstName C1
SYMATTR Value 22000µ
SYMATTR SpiceLine V=100 Irms=40 Rser=0.04 Lser=0
SYMBOL voltage -1152 512 R0
WINDOW 123 0 0 Left 2
WINDOW 0 24 10 Left 2
SYMATTR InstName V1
SYMATTR Value PWL(0 20 0.5 21 1 19)
SYMATTR SpiceLine Rser=0
SYMBOL res -48 1120 R180
WINDOW 0 36 76 Left 2
WINDOW 3 36 40 Left 2
SYMATTR InstName R1
SYMATTR Value 3.9k
SYMBOL res -80 1264 R0
SYMATTR InstName R3
SYMATTR Value 4.7k
SYMBOL npn 464 544 R0
WINDOW 0 84 4 VRight 2
WINDOW 3 84 54 VRight 2
SYMATTR InstName Q5
SYMATTR Value 2N3055
SYMBOL res 512 720 R0
SYMATTR InstName R2
SYMATTR Value 0.1
SYMATTR SpiceLine pwr=5
SYMBOL res 176 912 R0
SYMATTR InstName R7
SYMATTR Value 0.1
SYMATTR SpiceLine pwr=5
SYMBOL res 288 912 R0
SYMATTR InstName R8
SYMATTR Value 0.1
SYMATTR SpiceLine pwr=5
SYMBOL res 400 912 R0
SYMATTR InstName R9
SYMATTR Value 0.1
SYMATTR SpiceLine pwr=5
SYMBOL res 512 912 R0
SYMATTR InstName R10
SYMATTR Value 0.1
SYMATTR SpiceLine pwr=5
SYMBOL potentiometer -48 1152 M0
SYMATTR InstName U2
SYMATTR Value Rtot=10k wiper=0.1
SYMBOL cap 800 1168 R0
SYMATTR InstName C2
SYMATTR Value 100n
SYMBOL diode 880 1232 M180
WINDOW 0 24 64 Left 2
WINDOW 3 24 0 Left 2
SYMATTR InstName D1
SYMATTR Value 1N4148
SYMBOL Misc\\EuropeanPolcap -736 512 R0
WINDOW 0 26 0 Left 2
WINDOW 3 28 79 Left 2
SYMATTR InstName C3
SYMATTR Value 22000µ
SYMATTR SpiceLine V=100 Irms=40 Rser=0.04 Lser=0
SYMBOL diode 976 1104 R270
WINDOW 0 32 32 VTop 2
WINDOW 3 0 32 VBottom 2
SYMATTR InstName D2
SYMBOL res 1168 1104 R270
WINDOW 0 32 56 VTop 2
WINDOW 3 0 56 VBottom 2
SYMATTR InstName R11
SYMATTR Value 100
SYMBOL cap 1312 1168 R0
SYMATTR InstName C6
SYMATTR Value 0.1
TEXT 616 784 Left 2 ;5 W
TEXT -392 584 Left 2 !.inc potentiometer.sub
TEXT -392 552 Left 2 !.lib Models.lib
TEXT -344 128 Left 4 ;12V 20A Power Supply
TEXT -392 504 Left 2 !.tran 1.0
