Version 4
SHEET 1 2224 1972
WIRE -1072 416 -1216 416
WIRE -976 416 -1072 416
WIRE -880 416 -976 416
WIRE -784 416 -880 416
WIRE -544 416 -784 416
WIRE 48 416 -544 416
WIRE 192 416 48 416
WIRE 304 416 192 416
WIRE 48 496 48 416
WIRE -1216 512 -1216 416
WIRE -1072 512 -1072 416
WIRE -976 512 -976 416
WIRE -880 512 -880 416
WIRE -784 512 -784 416
WIRE -16 544 -80 544
WIRE 192 544 192 416
WIRE 304 544 304 416
WIRE 128 592 48 592
WIRE 240 592 128 592
WIRE -1072 640 -1072 576
WIRE -976 640 -976 576
WIRE -976 640 -1072 640
WIRE -880 640 -880 576
WIRE -880 640 -976 640
WIRE -784 640 -784 576
WIRE -784 640 -880 640
WIRE -976 672 -976 640
WIRE -544 672 -544 416
WIRE -416 672 -544 672
WIRE -1216 704 -1216 592
WIRE 192 720 192 640
WIRE 304 720 304 640
WIRE -544 768 -544 672
WIRE -416 768 -416 672
WIRE -80 800 -80 544
WIRE -80 800 -336 800
WIRE -192 864 -336 864
WIRE -80 864 -192 864
WIRE 192 864 192 800
WIRE 192 864 0 864
WIRE 304 864 304 800
WIRE 304 864 192 864
WIRE -192 880 -192 864
WIRE -624 928 -720 928
WIRE 192 928 192 864
WIRE 304 928 304 864
WIRE -720 944 -720 928
WIRE -192 960 -336 960
WIRE -64 960 -192 960
WIRE 16 960 -64 960
WIRE -64 1024 -64 960
WIRE -720 1056 -720 1024
WIRE -624 1056 -720 1056
WIRE -256 1056 -336 1056
WIRE -160 1056 -256 1056
WIRE 16 1056 16 960
WIRE 192 1056 192 1008
WIRE 192 1056 16 1056
WIRE 304 1056 304 1008
WIRE 304 1056 192 1056
WIRE 592 1056 304 1056
WIRE -256 1088 -256 1056
WIRE 592 1088 592 1056
WIRE 704 1088 704 1024
WIRE 704 1088 592 1088
WIRE 736 1088 704 1088
WIRE 592 1152 592 1088
WIRE -64 1168 -64 1104
WIRE 736 1168 736 1088
WIRE -256 1184 -256 1152
WIRE -256 1184 -336 1184
WIRE -160 1216 -160 1056
WIRE -112 1216 -160 1216
WIRE -64 1280 -64 1248
WIRE 592 1280 592 1232
WIRE 736 1280 736 1232
WIRE 736 1280 592 1280
WIRE 592 1328 592 1280
WIRE -480 1392 -480 1216
WIRE -64 1392 -64 1360
WIRE -64 1392 -480 1392
WIRE -480 1472 -480 1392
FLAG -480 1472 0
FLAG 592 1328 0
FLAG 704 1024 Vout
FLAG -1216 704 0
FLAG -976 672 0
SYMBOL npn 240 544 R0
WINDOW 0 82 4 VRight 2
WINDOW 3 84 56 VRight 2
SYMATTR InstName Q3
SYMATTR Value 2N3055
SYMBOL npn 128 544 R0
WINDOW 0 82 3 VRight 2
WINDOW 3 84 55 VRight 2
SYMATTR InstName Q2
SYMATTR Value 2N3055
SYMBOL npn -16 496 R0
WINDOW 0 84 5 VRight 2
WINDOW 3 85 51 VRight 2
SYMATTR InstName Q1
SYMATTR Value BD131
SYMBOL res 176 704 R0
SYMATTR InstName R4
SYMATTR Value 0.1
SYMATTR SpiceLine pwr=5
SYMBOL res 288 704 R0
SYMATTR InstName R5
SYMATTR Value 0.1
SYMATTR SpiceLine pwr=5
SYMBOL LM723 -480 896 R0
SYMATTR InstName U1
SYMBOL Misc\\EuropeanPolcap -1088 512 R0
WINDOW 0 27 0 Left 2
WINDOW 3 31 79 Left 2
SYMATTR InstName C1
SYMATTR Value 4700µ
SYMATTR SpiceLine V=100 Irms=40 Rser=0.04 Lser=0
SYMBOL voltage -1216 496 M0
WINDOW 123 0 0 Left 2
WINDOW 0 24 10 Left 2
SYMATTR InstName V1
SYMATTR Value PWL(0 20 0.5 21 1 19)
SYMATTR SpiceLine Rser=0
SYMBOL res 576 1136 R0
SYMATTR InstName RLoad
SYMATTR Value {RL}
SYMBOL res -48 1120 R180
WINDOW 0 36 76 Left 2
WINDOW 3 36 40 Left 2
SYMATTR InstName R1
SYMATTR Value 2.7k
SYMBOL res -80 1264 R0
SYMATTR InstName R3
SYMATTR Value 3.3k
SYMBOL res 176 912 R0
SYMATTR InstName R7
SYMATTR Value 0.15
SYMATTR SpiceLine pwr=10
SYMBOL res 288 912 R0
SYMATTR InstName R8
SYMATTR Value 0.15
SYMATTR SpiceLine pwr=10
SYMBOL potentiometer -48 1152 M0
SYMATTR InstName U2
SYMATTR Value Rtot=1k wiper=0.5
SYMBOL res -704 928 M0
SYMATTR InstName R11
SYMATTR Value 1.5k
SYMBOL Misc\\EuropeanPolcap -992 512 R0
WINDOW 0 27 0 Left 2
WINDOW 3 31 79 Left 2
SYMATTR InstName C2
SYMATTR Value 4700µ
SYMATTR SpiceLine V=100 Irms=40 Rser=0.04 Lser=0
SYMBOL Misc\\EuropeanPolcap -896 512 R0
WINDOW 0 27 0 Left 2
WINDOW 3 31 79 Left 2
SYMATTR InstName C3
SYMATTR Value 4700µ
SYMATTR SpiceLine V=100 Irms=40 Rser=0.04 Lser=0
SYMBOL Misc\\EuropeanPolcap -800 512 R0
WINDOW 0 27 0 Left 2
WINDOW 3 31 79 Left 2
SYMATTR InstName C4
SYMATTR Value 4700µ
SYMATTR SpiceLine V=100 Irms=40 Rser=0.04 Lser=0
SYMBOL Misc\\EuropeanPolcap 720 1168 R0
SYMATTR InstName C6
SYMATTR Value 1000µ
SYMATTR SpiceLine V=25V Rser=0.6
SYMBOL cap -272 1088 R0
SYMATTR InstName C5
SYMATTR Value 100p
SYMBOL res -208 864 R0
SYMATTR InstName R2
SYMATTR Value 680
SYMBOL res -96 880 R270
WINDOW 0 32 56 VTop 2
WINDOW 3 0 56 VBottom 2
SYMATTR InstName R6
SYMATTR Value 270
TEXT 368 768 Left 2 ;10 W
TEXT -392 584 Left 2 !.inc potentiometer.sub
TEXT -392 616 Left 2 !;op
TEXT -392 656 Left 2 !.STEP param RL 0.5 1
TEXT -392 552 Left 2 !.lib Models.lib
TEXT -384 696 Left 2 !.op
TEXT -344 128 Left 4 ;10A 13.8V Power Supply
TEXT 376 968 Left 2 ;10 W
